一、3车道
1、无控制
<e3Detector xmlns:xsi="http://www.w3.org/2001/XMLSchema-instance" xsi:noNamespaceSchemaLocation="http://sumo.dlr.de/xsd/det_e3_file.xsd">
   <interval begin="0.00" end="7800.00" id="e3Detector_0" meanTravelTime="184.60" meanOverlapTravelTime="184.91" meanSpeed="24.66" meanHaltsPerVehicle="0.00" meanTimeLoss="30.50" vehicleSum="8466" meanSpeedWithin="-1.00" meanHaltsPerVehicleWithin="-1.00" meanDurationWithin="-1.00" vehicleSumWithin="0" meanIntervalSpeedWithin="-1.00" meanIntervalHaltsPerVehicleWithin="-1.00" meanIntervalDurationWithin="-1.00" meanTimeLossWithin="-1.00"/>
</e3Detector>

2、mpc
<e3Detector xmlns:xsi="http://www.w3.org/2001/XMLSchema-instance" xsi:noNamespaceSchemaLocation="http://sumo.dlr.de/xsd/det_e3_file.xsd">
   <interval begin="0.00" end="7800.00" id="e3Detector_0" meanTravelTime="177.44" meanOverlapTravelTime="177.75" meanSpeed="25.73" meanHaltsPerVehicle="0.00" meanTimeLoss="23.36" vehicleSum="8466" meanSpeedWithin="-1.00" meanHaltsPerVehicleWithin="-1.00" meanDurationWithin="-1.00" vehicleSumWithin="0" meanIntervalSpeedWithin="-1.00" meanIntervalHaltsPerVehicleWithin="-1.00" meanIntervalDurationWithin="-1.00" meanTimeLossWithin="-1.00"/>
</e3Detector>

3、
(1)静态 [SSP]
<e3Detector xmlns:xsi="http://www.w3.org/2001/XMLSchema-instance" xsi:noNamespaceSchemaLocation="http://sumo.dlr.de/xsd/det_e3_file.xsd">
   <interval begin="0.00" end="7800.00" id="e3Detector_0" meanTravelTime="176.46" meanOverlapTravelTime="176.77" meanSpeed="25.93" meanHaltsPerVehicle="0.00" meanTimeLoss="22.37" vehicleSum="8466" meanSpeedWithin="-1.00" meanHaltsPerVehicleWithin="-1.00" meanDurationWithin="-1.00" vehicleSumWithin="0" meanIntervalSpeedWithin="-1.00" meanIntervalHaltsPerVehicleWithin="-1.00" meanIntervalDurationWithin="-1.00" meanTimeLossWithin="-1.00"/>
</e3Detector>

（2）静态  [TSP]
<e3Detector xmlns:xsi="http://www.w3.org/2001/XMLSchema-instance" xsi:noNamespaceSchemaLocation="http://sumo.dlr.de/xsd/det_e3_file.xsd">
   <interval begin="0.00" end="7800.00" id="e3Detector_0" meanTravelTime="178.20" meanOverlapTravelTime="178.51" meanSpeed="25.58" meanHaltsPerVehicle="0.00" meanTimeLoss="24.11" vehicleSum="8466" meanSpeedWithin="-1.00" meanHaltsPerVehicleWithin="-1.00" meanDurationWithin="-1.00" vehicleSumWithin="0" meanIntervalSpeedWithin="-1.00" meanIntervalHaltsPerVehicleWithin="-1.00" meanIntervalDurationWithin="-1.00" meanTimeLossWithin="-1.00"/>
</e3Detector>

（3）静态[TSS]
<e3Detector xmlns:xsi="http://www.w3.org/2001/XMLSchema-instance" xsi:noNamespaceSchemaLocation="http://sumo.dlr.de/xsd/det_e3_file.xsd">
   <interval begin="0.00" end="7800.00" id="e3Detector_0" meanTravelTime="188.35" meanOverlapTravelTime="188.66" meanSpeed="24.11" meanHaltsPerVehicle="0.00" meanTimeLoss="34.24" vehicleSum="8466" meanSpeedWithin="-1.00" meanHaltsPerVehicleWithin="-1.00" meanDurationWithin="-1.00" vehicleSumWithin="0" meanIntervalSpeedWithin="-1.00" meanIntervalHaltsPerVehicleWithin="-1.00" meanIntervalDurationWithin="-1.00" meanTimeLossWithin="-1.00"/>
</e3Detector>


4、反馈控制
<e3Detector xmlns:xsi="http://www.w3.org/2001/XMLSchema-instance" xsi:noNamespaceSchemaLocation="http://sumo.dlr.de/xsd/det_e3_file.xsd">
   <interval begin="0.00" end="7800.00" id="e3Detector_0" meanTravelTime="181.28" meanOverlapTravelTime="181.59" meanSpeed="25.17" meanHaltsPerVehicle="0.00" meanTimeLoss="27.19" vehicleSum="8466" meanSpeedWithin="-1.00" meanHaltsPerVehicleWithin="-1.00" meanDurationWithin="-1.00" vehicleSumWithin="0" meanIntervalSpeedWithin="-1.00" meanIntervalHaltsPerVehicleWithin="-1.00" meanIntervalDurationWithin="-1.00" meanTimeLossWithin="-1.00"/>
</e3Detector>




二、4车道
1、无控制
<e3Detector xmlns:xsi="http://www.w3.org/2001/XMLSchema-instance" xsi:noNamespaceSchemaLocation="http://sumo.dlr.de/xsd/det_e3_file.xsd">
   <interval begin="0.00" end="7800.00" id="e3Detector_0" meanTravelTime="183.43" meanOverlapTravelTime="183.74" meanSpeed="24.83" meanHaltsPerVehicle="0.00" meanTimeLoss="29.11" vehicleSum="11289" meanSpeedWithin="-1.00" meanHaltsPerVehicleWithin="-1.00" meanDurationWithin="-1.00" vehicleSumWithin="0" meanIntervalSpeedWithin="-1.00" meanIntervalHaltsPerVehicleWithin="-1.00" meanIntervalDurationWithin="-1.00" meanTimeLossWithin="-1.00"/>
</e3Detector>

2、mpc
<e3Detector xmlns:xsi="http://www.w3.org/2001/XMLSchema-instance" xsi:noNamespaceSchemaLocation="http://sumo.dlr.de/xsd/det_e3_file.xsd">
   <interval begin="0.00" end="7800.00" id="e3Detector_0" meanTravelTime="176.16" meanOverlapTravelTime="176.47" meanSpeed="25.89" meanHaltsPerVehicle="0.01" meanTimeLoss="21.83" vehicleSum="11289" meanSpeedWithin="-1.00" meanHaltsPerVehicleWithin="-1.00" meanDurationWithin="-1.00" vehicleSumWithin="0" meanIntervalSpeedWithin="-1.00" meanIntervalHaltsPerVehicleWithin="-1.00" meanIntervalDurationWithin="-1.00" meanTimeLossWithin="-1.00"/>
</e3Detector>

3、
(1)静态 [SSPP]
<e3Detector xmlns:xsi="http://www.w3.org/2001/XMLSchema-instance" xsi:noNamespaceSchemaLocation="http://sumo.dlr.de/xsd/det_e3_file.xsd">
   <interval begin="0.00" end="7800.00" id="e3Detector_0" meanTravelTime="171.79" meanOverlapTravelTime="172.10" meanSpeed="26.72" meanHaltsPerVehicle="0.00" meanTimeLoss="17.48" vehicleSum="11289" meanSpeedWithin="-1.00" meanHaltsPerVehicleWithin="-1.00" meanDurationWithin="-1.00" vehicleSumWithin="0" meanIntervalSpeedWithin="-1.00" meanIntervalHaltsPerVehicleWithin="-1.00" meanIntervalDurationWithin="-1.00" meanTimeLossWithin="-1.00"/>
</e3Detector>

（2）静态  [TSPP]
<e3Detector xmlns:xsi="http://www.w3.org/2001/XMLSchema-instance" xsi:noNamespaceSchemaLocation="http://sumo.dlr.de/xsd/det_e3_file.xsd">
   <interval begin="0.00" end="7800.00" id="e3Detector_0" meanTravelTime="172.38" meanOverlapTravelTime="172.69" meanSpeed="26.58" meanHaltsPerVehicle="0.00" meanTimeLoss="18.08" vehicleSum="11289" meanSpeedWithin="-1.00" meanHaltsPerVehicleWithin="-1.00" meanDurationWithin="-1.00" vehicleSumWithin="0" meanIntervalSpeedWithin="-1.00" meanIntervalHaltsPerVehicleWithin="-1.00" meanIntervalDurationWithin="-1.00" meanTimeLossWithin="-1.00"/>
</e3Detector>

（3）静态[TTSP]
<e3Detector xmlns:xsi="http://www.w3.org/2001/XMLSchema-instance" xsi:noNamespaceSchemaLocation="http://sumo.dlr.de/xsd/det_e3_file.xsd">
   <interval begin="0.00" end="7800.00" id="e3Detector_0" meanTravelTime="184.36" meanOverlapTravelTime="184.67" meanSpeed="24.82" meanHaltsPerVehicle="0.18" meanTimeLoss="29.92" vehicleSum="10326" meanSpeedWithin="23.12" meanHaltsPerVehicleWithin="0.15" meanDurationWithin="92.37" vehicleSumWithin="248" meanIntervalSpeedWithin="23.12" meanIntervalHaltsPerVehicleWithin="0.15" meanIntervalDurationWithin="92.37" meanTimeLossWithin="16.48"/>
</e3Detector>

(4)静态 [TTSS]
<e3Detector xmlns:xsi="http://www.w3.org/2001/XMLSchema-instance" xsi:noNamespaceSchemaLocation="http://sumo.dlr.de/xsd/det_e3_file.xsd">
   <interval begin="0.00" end="7800.00" id="e3Detector_0" meanTravelTime="199.91" meanOverlapTravelTime="206.77" meanSpeed="22.25" meanHaltsPerVehicle="0.25" meanTimeLoss="51.95" vehicleSum="11225" meanSpeedWithin="23.49" meanHaltsPerVehicleWithin="0.00" meanDurationWithin="165.94" vehicleSumWithin="64" meanIntervalSpeedWithin="23.49" meanIntervalHaltsPerVehicleWithin="0.00" meanIntervalDurationWithin="165.94" meanTimeLossWithin="23.11"/>
</e3Detector>

4、反馈控制
<e3Detector xmlns:xsi="http://www.w3.org/2001/XMLSchema-instance" xsi:noNamespaceSchemaLocation="http://sumo.dlr.de/xsd/det_e3_file.xsd">
   <interval begin="0.00" end="7800.00" id="e3Detector_0" meanTravelTime="180.71" meanOverlapTravelTime="181.02" meanSpeed="25.27" meanHaltsPerVehicle="0.04" meanTimeLoss="26.37" vehicleSum="11289" meanSpeedWithin="-1.00" meanHaltsPerVehicleWithin="-1.00" meanDurationWithin="-1.00" vehicleSumWithin="0" meanIntervalSpeedWithin="-1.00" meanIntervalHaltsPerVehicleWithin="-1.00" meanIntervalDurationWithin="-1.00" meanTimeLossWithin="-1.00"/>
</e3Detector>


三、5车道
1、无控制
<e3Detector xmlns:xsi="http://www.w3.org/2001/XMLSchema-instance" xsi:noNamespaceSchemaLocation="http://sumo.dlr.de/xsd/det_e3_file.xsd">
   <interval begin="0.00" end="7800.00" id="e3Detector_0" meanTravelTime="183.33" meanOverlapTravelTime="183.64" meanSpeed="24.88" meanHaltsPerVehicle="0.00" meanTimeLoss="29.22" vehicleSum="14113" meanSpeedWithin="-1.00" meanHaltsPerVehicleWithin="-1.00" meanDurationWithin="-1.00" vehicleSumWithin="0" meanIntervalSpeedWithin="-1.00" meanIntervalHaltsPerVehicleWithin="-1.00" meanIntervalDurationWithin="-1.00" meanTimeLossWithin="-1.00"/>
</e3Detector>

2、mpc
<e3Detector xmlns:xsi="http://www.w3.org/2001/XMLSchema-instance" xsi:noNamespaceSchemaLocation="http://sumo.dlr.de/xsd/det_e3_file.xsd">
   <interval begin="0.00" end="7800.00" id="e3Detector_0" meanTravelTime="172.32" meanOverlapTravelTime="172.63" meanSpeed="26.51" meanHaltsPerVehicle="0.01" meanTimeLoss="18.21" vehicleSum="14113" meanSpeedWithin="-1.00" meanHaltsPerVehicleWithin="-1.00" meanDurationWithin="-1.00" vehicleSumWithin="0" meanIntervalSpeedWithin="-1.00" meanIntervalHaltsPerVehicleWithin="-1.00" meanIntervalDurationWithin="-1.00" meanTimeLossWithin="-1.00"/>
</e3Detector>

3、
(1)静态 [SSPPP]
<e3Detector xmlns:xsi="http://www.w3.org/2001/XMLSchema-instance" xsi:noNamespaceSchemaLocation="http://sumo.dlr.de/xsd/det_e3_file.xsd">
   <interval begin="0.00" end="7800.00" id="e3Detector_0" meanTravelTime="172.62" meanOverlapTravelTime="172.93" meanSpeed="26.66" meanHaltsPerVehicle="0.02" meanTimeLoss="18.65" vehicleSum="13850" meanSpeedWithin="23.63" meanHaltsPerVehicleWithin="0.12" meanDurationWithin="103.98" vehicleSumWithin="254" meanIntervalSpeedWithin="23.63" meanIntervalHaltsPerVehicleWithin="0.12" meanIntervalDurationWithin="103.98" meanTimeLossWithin="17.67"/>
</e3Detector>

（2）静态 [TSPPP]
<e3Detector xmlns:xsi="http://www.w3.org/2001/XMLSchema-instance" xsi:noNamespaceSchemaLocation="http://sumo.dlr.de/xsd/det_e3_file.xsd">
   <interval begin="0.00" end="7800.00" id="e3Detector_0" meanTravelTime="173.09" meanOverlapTravelTime="173.40" meanSpeed="26.55" meanHaltsPerVehicle="0.03" meanTimeLoss="19.06" vehicleSum="14083" meanSpeedWithin="22.62" meanHaltsPerVehicleWithin="0.00" meanDurationWithin="183.81" vehicleSumWithin="30" meanIntervalSpeedWithin="22.62" meanIntervalHaltsPerVehicleWithin="0.00" meanIntervalDurationWithin="183.81" meanTimeLossWithin="17.97"/>
</e3Detector>

（3）静态[TTSPP]
<e3Detector xmlns:xsi="http://www.w3.org/2001/XMLSchema-instance" xsi:noNamespaceSchemaLocation="http://sumo.dlr.de/xsd/det_e3_file.xsd">
   <interval begin="0.00" end="7800.00" id="e3Detector_0" meanTravelTime="177.25" meanOverlapTravelTime="177.55" meanSpeed="25.80" meanHaltsPerVehicle="0.05" meanTimeLoss="23.08" vehicleSum="14107" meanSpeedWithin="23.63" meanHaltsPerVehicleWithin="0.00" meanDurationWithin="176.97" vehicleSumWithin="6" meanIntervalSpeedWithin="23.63" meanIntervalHaltsPerVehicleWithin="0.00" meanIntervalDurationWithin="176.97" meanTimeLossWithin="3.02"/>
</e3Detector>

(4)静态 [TTTSP]
<e3Detector xmlns:xsi="http://www.w3.org/2001/XMLSchema-instance" xsi:noNamespaceSchemaLocation="http://sumo.dlr.de/xsd/det_e3_file.xsd">
   <interval begin="0.00" end="7800.00" id="e3Detector_0" meanTravelTime="184.74" meanOverlapTravelTime="186.70" meanSpeed="24.58" meanHaltsPerVehicle="0.29" meanTimeLoss="32.13" vehicleSum="11489" meanSpeedWithin="23.36" meanHaltsPerVehicleWithin="0.00" meanDurationWithin="91.39" vehicleSumWithin="275" meanIntervalSpeedWithin="23.36" meanIntervalHaltsPerVehicleWithin="0.00" meanIntervalDurationWithin="91.39" meanTimeLossWithin="12.78"/>
</e3Detector>

(5)静态 [TTTSS]
<e3Detector xmlns:xsi="http://www.w3.org/2001/XMLSchema-instance" xsi:noNamespaceSchemaLocation="http://sumo.dlr.de/xsd/det_e3_file.xsd">
   <interval begin="0.00" end="7800.00" id="e3Detector_0" meanTravelTime="203.97" meanOverlapTravelTime="223.59" meanSpeed="20.70" meanHaltsPerVehicle="0.51" meanTimeLoss="68.61" vehicleSum="11409" meanSpeedWithin="16.70" meanHaltsPerVehicleWithin="0.72" meanDurationWithin="118.69" vehicleSumWithin="350" meanIntervalSpeedWithin="16.70" meanIntervalHaltsPerVehicleWithin="0.72" meanIntervalDurationWithin="118.69" meanTimeLossWithin="43.11"/>
</e3Detector>

4、反馈控制
<e3Detector xmlns:xsi="http://www.w3.org/2001/XMLSchema-instance" xsi:noNamespaceSchemaLocation="http://sumo.dlr.de/xsd/det_e3_file.xsd">
   <interval begin="0.00" end="7800.00" id="e3Detector_0" meanTravelTime="175.94" meanOverlapTravelTime="176.25" meanSpeed="25.99" meanHaltsPerVehicle="0.03" meanTimeLoss="21.84" vehicleSum="13878" meanSpeedWithin="25.20" meanHaltsPerVehicleWithin="0.05" meanDurationWithin="121.52" vehicleSumWithin="235" meanIntervalSpeedWithin="25.20" meanIntervalHaltsPerVehicleWithin="0.05" meanIntervalDurationWithin="121.52" meanTimeLossWithin="16.42"/>
</e3Detector>